  main.cpp
d:\profiles\njp2424\desktop\physics\level3\graphics-glfw-hydrodynamics-mastervs2019\hydrodynamics\main.cpp(119): warning C4305: 'argument': truncation from 'double' to 'GLfloat'
d:\profiles\njp2424\desktop\physics\level3\graphics-glfw-hydrodynamics-mastervs2019\hydrodynamics\main.cpp(296): warning C4305: 'argument': truncation from 'double' to 'GLfloat'
d:\profiles\njp2424\desktop\physics\level3\graphics-glfw-hydrodynamics-mastervs2019\hydrodynamics\main.cpp(353): warning C4326: return type of 'main' should be 'int' instead of 'void'
LINK : warning LNK4098: defaultlib 'MSVCRT' conflicts with use of other libs; use /NODEFAULTLIB:library
  HydroDynamics.vcxproj -> D:\Profiles\njp2424\Desktop\Physics\level3\graphics-glfw-hydroDynamics-masterVS2019\HydroDynamics\Debug\HydroDynamics.exe
